data_image0
_chemical_formula_structural       Cs8ZnPb7I24
_chemical_formula_sum              "Cs8 Zn1 Pb7 I24"
_cell_length_a       12.418521182421825
_cell_length_b       12.418521182421825
_cell_length_c       12.418521182421825
_cell_angle_alpha    90.0
_cell_angle_beta     90.0
_cell_angle_gamma    90.0

_space_group_name_H-M_alt    "P 1"
_space_group_IT_number       1

loop_
  _space_group_symop_operation_xyz
  'x, y, z'

loop_
  _atom_site_type_symbol
  _atom_site_label
  _atom_site_symmetry_multiplicity
  _atom_site_fract_x
  _atom_site_fract_y
  _atom_site_fract_z
  _atom_site_occupancy
  Cs  Cs1       1.0  0.7527258589  0.7527258589  0.7527258589  1.0000
  Cs  Cs2       1.0  0.24727414110000004  0.7527258589  0.24727414110000004  1.0000
  Cs  Cs3       1.0  0.7527258589  0.24727414110000004  0.24727414110000004  1.0000
  Cs  Cs4       1.0  0.24727414110000004  0.24727414110000004  0.7527258589  1.0000
  Cs  Cs5       1.0  0.7527258589  0.7527258589  0.24727414110000004  1.0000
  Cs  Cs6       1.0  0.7527258589  0.24727414110000004  0.7527258589  1.0000
  Cs  Cs7       1.0  0.24727414110000004  0.7527258589  0.7527258589  1.0000
  Cs  Cs8       1.0  0.24727414110000004  0.24727414110000004  0.24727414110000004  1.0000
  Zn  Zn1       1.0  0.0  0.0  0.0  1.0000
  Pb  Pb1       1.0  0.0  0.5  0.0  1.0000
  Pb  Pb2       1.0  0.5  0.0  0.0  1.0000
  Pb  Pb3       1.0  0.0  0.0  0.5  1.0000
  Pb  Pb4       1.0  0.0  0.5  0.5  1.0000
  Pb  Pb5       1.0  0.5  0.5  0.0  1.0000
  Pb  Pb6       1.0  0.5  0.0  0.5  1.0000
  Pb  Pb7       1.0  0.5  0.5  0.5  1.0000
  I   I1        1.0  0.0  0.2325755335  0.0  1.0000
  I   I2        1.0  0.0  0.7674244665000001  0.0  1.0000
  I   I3        1.0  0.2325755335  0.0  0.0  1.0000
  I   I4        1.0  0.7674244665000001  0.0  0.0  1.0000
  I   I5        1.0  0.0  0.0  0.7674244665000001  1.0000
  I   I6        1.0  0.0  0.0  0.2325755335  1.0000
  I   I7        1.0  0.5  0.0  0.7505426164000001  1.0000
  I   I8        1.0  0.5  0.0  0.2494573836  1.0000
  I   I9        1.0  0.7505426164000001  0.5  0.0  1.0000
  I   I10       1.0  0.2494573836  0.5  0.0  1.0000
  I   I11       1.0  0.0  0.7505426164000001  0.5  1.0000
  I   I12       1.0  0.0  0.2494573836  0.5  1.0000
  I   I13       1.0  0.0  0.5  0.2494573836  1.0000
  I   I14       1.0  0.0  0.5  0.7505426164000001  1.0000
  I   I15       1.0  0.5  0.7505426164000001  0.0  1.0000
  I   I16       1.0  0.5  0.2494573836  0.0  1.0000
  I   I17       1.0  0.7505426164000001  0.0  0.5  1.0000
  I   I18       1.0  0.2494573836  0.0  0.5  1.0000
  I   I19       1.0  0.7500302226  0.5  0.5  1.0000
  I   I20       1.0  0.2499697774  0.5  0.5  1.0000
  I   I21       1.0  0.5  0.5  0.2499697774  1.0000
  I   I22       1.0  0.5  0.5  0.7500302226  1.0000
  I   I23       1.0  0.5  0.7500302226  0.5  1.0000
  I   I24       1.0  0.5  0.2499697774  0.5  1.0000
