data_image0
_chemical_formula_structural       Ge2S9P2Li10
_chemical_formula_sum              "Ge2 S9 P2 Li10"
_cell_length_a       19.33825340703539
_cell_length_b       19.33825340703539
_cell_length_c       12.96235916579119
_cell_angle_alpha    90.0
_cell_angle_beta     90.0
_cell_angle_gamma    143.40070966697584

_space_group_name_H-M_alt    "P 1"
_space_group_IT_number       1

loop_
  _space_group_symop_operation_xyz
  'x, y, z'

loop_
  _atom_site_type_symbol
  _atom_site_label
  _atom_site_symmetry_multiplicity
  _atom_site_fract_x
  _atom_site_fract_y
  _atom_site_fract_z
  _atom_site_occupancy
  Ge  Ge1       1.0  0.1895236264  0.3556157206  0.6066730593  1.0000
  Ge  Ge2       1.0  0.9148989961  0.1725237358  0.4757066602  1.0000
  S   S1        1.0  0.34675793120000004  0.42233645070000003  0.6431138506  1.0000
  S   S2        1.0  0.04631946679999999  0.1695700406  0.5642442546999998  1.0000
  S   S3        1.0  0.7114016566  0.9614097628  0.5050238846  1.0000
  S   S4        1.0  0.9434662193999999  0.2028154888  0.2875875763  1.0000
  S   S5        1.0  0.8755110697  0.2720447695  0.5188262032  1.0000
  S   S6        1.0  0.37054104679999994  0.12945895320000003  0.7499999999999999  1.0000
  S   S7        1.0  0.6230520157999999  0.05300238490000001  0.6582158528999998  1.0000
  S   S8        1.0  0.3542987342999999  0.9214054845  0.6730494034  1.0000
  S   S9        1.0  0.1261614951  0.19425004410000002  0.1553205737  1.0000
  P   P1        1.0  0.0005747967000000317  0.4994252033  0.7499999999999999  1.0000
  P   P2        1.0  0.25  0.25  0.25  1.0000
  Li  Li1       1.0  0.4373654568  0.5732666408  0.2727838899  1.0000
  Li  Li2       1.0  0.9086986687999999  0.5913013312  0.7499999999999999  1.0000
  Li  Li3       1.0  0.7712244452999999  0.38598339540000004  0.8330581569  1.0000
  Li  Li4       1.0  0.9200477069999999  0.5420136219000001  0.48166585109999993  1.0000
  Li  Li5       1.0  0.25  0.25  0.7499999999999999  1.0000
  Li  Li6       1.0  0.630548041  0.6264563703  0.9973021641  1.0000
  Li  Li7       1.0  0.1648738951  0.3351261049  0.25  1.0000
  Li  Li8       1.0  0.25  0.75  0.5661536562  1.0000
  Li  Li9       1.0  0.25  0.75  0.8726039833  1.0000
  Li  Li10      1.0  0.25067096750000006  0.5730751350000001  0.8035168409  1.0000
