data_Ccce
_symmetry_space_group_name_H-M 'Ccce'
_symmetry_Int_Tables_number 68
_symmetry_cell_setting orthorhombic

_cell_length_a 35.67421
_cell_length_b 12.13
_cell_length_c 12.96236
_cell_angle_alpha 90.000
_cell_angle_beta 90.000
_cell_angle_gamma 90.000

loop_
_symmetry_equiv_pos_as_xyz
'x,y,z'
'-x+0.500,-y+0.500,z'
'-y+0.500,-x+0.500,-z+0.500'
'y,x,-z+0.500'
'-x,-y,-z-0.000'
'x+0.500,y+0.500,-z-0.000'
'y+0.500,x+0.500,z+0.500'
'-y,-x,z+0.500'

loop_
_atom_site_label
_atom_site_type_symbol
_atom_site_fract_x
_atom_site_fract_y
_atom_site_fract_z
_atom_site_Wyckoff_symbol
_atom_site_symmetry_multiplicity
_atom_site_site_symmetry
Ge1 Ge 0.18952 0.35562 0.60667 i 8 0-fold
Ge2 Ge 0.91490 0.17252 0.47571 i 8 0-fold
S3 S 0.34676 0.42234 0.64311 i 8 0-fold
S4 S 0.04632 0.16957 0.56424 i 8 0-fold
S5 S 0.71140 0.96141 0.50502 i 8 0-fold
S6 S 0.94347 0.20282 0.28759 i 8 0-fold
S7 S 0.87551 0.27204 0.51883 i 8 0-fold
S8 S 0.37054 0.12946 0.75000 e 4 0-fold
S9 S 0.62305 0.05300 0.65822 i 8 0-fold
S10 S 0.35430 0.92141 0.67305 i 8 0-fold
S11 S 0.12616 0.19425 0.15532 i 8 1-fold
P12 P 0.00057 0.49943 0.75000 e 4 0-fold
P13 P 0.25000 0.25000 0.25000 b 2 4-fold
Li14 Li 0.43737 0.57327 0.27278 i 8 0-fold
Li15 Li 0.90870 0.59130 0.75000 e 4 0-fold
Li16 Li 0.77122 0.38598 0.83306 i 8 0-fold
Li17 Li 0.92005 0.54201 0.48167 i 8 0-fold
Li18 Li 0.25000 0.25000 0.75000 a 2 0-fold
Li19 Li 0.63055 0.62646 0.99730 i 8 0-fold
Li20 Li 0.16487 0.33513 0.25000 e 4 2-fold
Li21 Li 0.25000 0.75000 0.56615 h 4 0-fold
Li22 Li 0.25000 0.75000 0.87260 h 4 0-fold
Li23 Li 0.25067 0.57308 0.80352 i 8 0-fold

# Detailed Wyckoff Position Information:
# Wyckoff Symbol | Multiplicity | Number of Independent Atoms
# i    |    8 |  120
# e    |    4 |   16
# b    |    2 |    2
# a    |    2 |    2
# h    |    4 |    8

# NOTE: This structure contains only symmetry-inequivalent atoms
# When symmetry operations are applied, it expands to 148 atoms
# as used in the Quantum ESPRESSO calculations
